*NODE, NSET=NALL
    1, 0.0000000000e+00, 0.0000000000e+00, 0.0000000000e+00
    2, 1.0000000000e+00, 0.0000000000e+00, 0.0000000000e+00
    3, 2.0000000000e-01, 2.0000000000e-01, 2.0000000000e-01
    4, 0.0000000000e+00, 1.0000000000e+00, 0.0000000000e+00
    5, 5.0000000000e-01, 0.0000000000e+00, 0.0000000000e+00
    6, 6.0000000000e-01, 1.0000000000e-01, 1.0000000000e-01
    7, 1.0000000000e-01, 1.0000000000e-01, 1.0000000000e-01
    8, 0.0000000000e+00, 5.0000000000e-01, 0.0000000000e+00
    9, 1.0000000000e-01, 6.0000000000e-01, 1.0000000000e-01
    10, 5.0000000000e-01, 5.0000000000e-01, 0.0000000000e+00
    11, 0.0000000000e+00, 0.0000000000e+00, 1.0000000000e+00
    12, 5.0000000000e-01, 0.0000000000e+00, 5.0000000000e-01
    13, 0.0000000000e+00, 0.0000000000e+00, 5.0000000000e-01
    14, 1.0000000000e-01, 1.0000000000e-01, 6.0000000000e-01
    15, 0.0000000000e+00, 5.0000000000e-01, 5.0000000000e-01

*ELEMENT, TYPE=C3D10, ELSET=C3D10
    11, 3, 1, 4, 2, 7, 8, 9, 6, 5, 10, 
    22, 1, 2, 3, 11, 5, 6, 7, 13, 12, 14,
    33, 1, 11, 3, 4, 13, 14, 7, 8, 15, 9, 
    44, 11, 2, 3, 4, 12, 6, 14, 15, 10, 9, 


*MATERIAL,NAME=MAT1
*ELASTIC
210E9,.3
*DENSITY
7.8E3



*SOLID SECTION,ELSET=C3D10,MATERIAL=MAT1




*STEP
*FREQUENCY,SOLVER=MATRIXSTORAGE
*END STEP


** *STEP
** *FREQUENCY
** 4
** *NODE FILE
** U
** *EL FILE
** S
** *END STEP