*NODE, NSET=NALL
    1, 0.0000000000e+00, 0.0000000000e+00, 0.0000000000e+00
    2, 0.0000000000e+00, 1.0000000000e+00, 0.0000000000e+00
    3, 1.0000000000e+00, 0.0000000000e+00, 0.0000000000e+00
    4, 0.0000000000e+00, 0.0000000000e+00, 1.0000000000e+00
    5, 5.0000000000e-01, 0.0000000000e+00, 0.0000000000e+00
    6, 5.0000000000e-01, 5.0000000000e-01, 0.0000000000e+00
    7, 0.0000000000e+00, 5.0000000000e-01, 0.0000000000e+00
    8, 0.0000000000e+00, 5.0000000000e-01, 5.0000000000e-01
    9, 0.0000000000e+00, 0.0000000000e+00, 5.0000000000e-01
    10, 5.0000000000e-01, 0.0000000000e+00, 5.0000000000e-01
*ELEMENT, TYPE=C3D10, ELSET=C3D10
    11, 3, 1, 4, 2, 5, 9, 10, 6, 7, 8, 

*MATERIAL,NAME=MAT1
*ELASTIC
210E9,.3
*DENSITY
7.8E3



*SOLID SECTION,ELSET=C3D10,MATERIAL=MAT1




*STEP
*FREQUENCY,SOLVER=MATRIXSTORAGE
*END STEP


** *STEP
** *FREQUENCY
** 10
** *NODE FILE
** U
** *EL FILE
** S
** *END STEP