/batch
/config,noeldb,1     ! force off writing results to database
*get,_wallstrt,active,,time,wall
! ANSYS input file written by Workbench version 2025 R2
! File used for geometry attach: \\tsclient\data\liangye\study loves me\data\non-linear problem\Periodic Forced Response Solver\two-solid system\FEM\test_box\Block.iges
/title,wbnew--Modal (A5)
! ****** Begin Custom Load Command Snippet ******
/COM, ACT Extensions:
/COM,     LSDYNA, 2025.2
/COM,     5f463412-bd3e-484b-87e7-cbc0a665e474, wbex
/COM,/COM,     ANSYSMotion, 2025.2
/COM,     20180725-3f81-49eb-9f31-41364844c769, wbex
/COM,
! ****** End   Custom Load Command Snippet ******
*DIM,_wb_ProjectScratch_dir,string,248
_wb_ProjectScratch_dir(1) = 'C:\Users\UPM\AppData\Local\Temp\WB_UPM_6520_2\_ProjectScratch\ScrC8AC\'
*DIM,_wb_SolverFiles_dir,string,248
_wb_SolverFiles_dir(1) = 'C:\Users\UPM\AppData\Local\Temp\WB_UPM_6520_2\wbnew_files\dp0\SYS\MECH\'
*DIM,_wb_userfiles_dir,string,248
_wb_userfiles_dir(1) = 'C:\Users\UPM\AppData\Local\Temp\WB_UPM_6520_2\wbnew_files\user_files\'
/com,--- Data in consistent MKS units. See Solving Units in the help system for more information.
/units,MKS
/nopr
/wb,file,start              !  signify a WB generated input file
/prep7
! Turn off shape checking because checks already performed inside WB mesher.
! See help system for more information.
SHPP,OFF,,NOWARN
/nolist
etcon,set             ! allow ANSYS to choose best KEYOP's for 180x elements, resets any applicable keyopt to MAPDL defaults
/com,*********** Send User Defined Coordinate System(s) ***********
csys,0
/com,*********** Nodes for the whole assembly ***********
nblock,3,,67
(1i9,3e20.9e3)
        1     0.000000000E+00     1.000000000E+00     0.000000000E+00
        2     0.000000000E+00     0.000000000E+00     0.000000000E+00
        3     0.000000000E+00     0.000000000E+00     2.000000000E+00
        4     0.000000000E+00     0.000000000E+00     1.000000000E+00
        5     0.000000000E+00     1.000000000E+00     2.000000000E+00
        6     0.000000000E+00     1.000000000E+00     1.000000000E+00
        7     1.000000000E+00     0.000000000E+00     0.000000000E+00
        8     1.000000000E+00     0.000000000E+00     2.000000000E+00
        9     1.000000000E+00     0.000000000E+00     1.000000000E+00
       10     1.000000000E+00     1.000000000E+00     0.000000000E+00
       11     1.000000000E+00     1.000000000E+00     2.000000000E+00
       12     1.000000000E+00     1.000000000E+00     1.000000000E+00
       13     4.999467269E-01     4.999255438E-01     1.500128706E+00
       14     5.001440102E-01     5.001991535E-01     5.000157897E-01
       15     0.000000000E+00     5.000000000E-01     0.000000000E+00
       16     0.000000000E+00     5.000000000E-01     5.000000000E-01
       17     0.000000000E+00     1.000000000E+00     5.000000000E-01
       18     5.000000000E-01     5.000000000E-01     0.000000000E+00
       19     5.000000000E-01     1.000000000E+00     0.000000000E+00
       20     2.500720051E-01     7.500995767E-01     2.500078948E-01
! ... 42 like lines cut
/wb,elem,start            !  set before creation of elements
/com,*********** Elements for Body 1 'Open CASCADE IGES processor 7.9| DE        1|Solid' ***********
et,1,187
MAT,1 $ TYPE,1 $ REAL,1 $ SECNUM,1 $ ESYS,0
eblock,11,COMPACT,,24
(11i9)
        1        4       12       13        9       34       60       35       33       53       54
        2        8       12        9       13       51       53       49       52       60       54
        3        4       14       12        9       36       61       34       33       55       53
        4        3        9        4       13       28       33       25       30       54       35
        5        4       13       12        6       35       60       34       32       43       42
        6        3        9       13        8       28       54       30       27       49       52
        7        8       12       13       11       51       60       52       50       58       59
        8        7       14        9       12       48       55       45       47       61       53
        9        2       14        4        9       24       36       21       23       55       33
       10        4       12       14        6       34       61       36       32       42       44
       11        3       13        4        5       30       35       25       26       39       31
       12        4        5       13        6       31       39       35       32       37       43
       13        6       11       13       12       41       59       43       42       58       60
       14        3        8       13       11       27       52       30       29       50       59
       15        7       14       12       10       48       61       47       46       57       56
       16        2        7       14        9       22       48       24       23       45       55
       17        1        2       14        4       15       24       20       16       21       36
       18        1        4       14        6       16       36       20       17       32       44
       19        6       14       10       12       44       57       40       42       61       56
       20        3       13        5       11       30       39       26       29       59       38
! ... 5 like lines cut
secnum,1    ! reset the section ID to default
! Material Id = {1E1785B7-55B1-4447-B506-8246B9CB79A4}
/wb,elem,end               !  done creating elements
toffst,273.15,      ! Temperature offset from absolute zero
/com,*********** Set Reference Temperature ***********
tref,22.
/wb,mat,start              !  starting to send materials
/com,*********** Send Materials ***********
Temperature = 'TEMP' ! Temperature
MP,DENS,1,7850,	! kg m^-3
MP,ALPX,1,1.2e-05,	! C^-1
MP,C,1,434,	! J kg^-1 C^-1
MP,KXX,1,60.5,	! W m^-1 C^-1
MP,RSVX,1,1.7e-07,	! kg m^3 A^-2 s^-3
MP,EX,1,200000000000,	! Pa
MP,NUXY,1,0.3,
MP,MURX,1,10000,
MP,UVID,1,4c6e7692-dabe-4c6a-9544-bfae026738cd
MP,UMID,1,59002a79-71c2-428e-906b-55d7dbee100e

/wb,mat,end                !  done sending materials
!************************* Model Summary ********************
!Open CASCADE IGES processor 7.9| DE        1|Solid,	Structural Steel,	matid,	1
!************************* End Model Summary ********************
! get the diagonal of the bounding box. Needed later for other things
*get,_xmin,node,,mnloc,x
*get,_ymin,node,,mnloc,y
*get,_zmin,node,,mnloc,z
*get,_xmax,node,,mxloc,x
*get,_ymax,node,,mxloc,y
*get,_zmax,node,,mxloc,z
_ASMDIAG=(_xmax-_xmin)*(_xmax-_xmin)+(_ymax-_ymin)*(_ymax-_ymin)+(_zmax-_zmin)*(_zmax-_zmin)
_ASMDIAG=SQRT(_ASMDIAG)
/wb,contact,start          !  starting to send contact
/wb,contact,end            !  done creating contacts
/golist
/wb,load,start             !  starting to send loads
/gst,on,on
fini
*get,_numnode,node,0,count
*get,_numelem,elem,0,count
*get, _MAXELEMNUM, elem, 0, NUM, MAX
*get, _MAXNODENUM, node, 0, NUM, MAX
*get, _MAXELEMTYPE, etyp, 0, NUM, MAX
*get, _MAXREALCONST, rcon, 0, NUM, MAX
/go
/wb,load,end               !  done creating loads
/com,--- Number of total nodes = %_numnode%
/com,--- Number of contact elements = 0
/com,--- Number of spring elements = 0
/com,--- Number of bearing elements = 0
/com,--- Number of solid elements = 24
/com,--- Number of condensed parts = 0
/com,--- Number of total elements = %_numelem%
*get,_wallbsol,active,,time,wall
/solu
antype,2                   ! modal analysis
_thickRatio=  0     ! Ratio of thick parts in the model
thexpand,off     ! ignore thermal strains
modopt,lanb,12
outres,erase
outres,all,none
outres,nsol,all
mxpand                    ! default expand in case of complex solution
! *********** WB SOLVE COMMAND ***********
! check interactive state
*get,ANSINTER_,active,,int
*if,ANSINTER_,ne,0,then
/eof
*endif
solve
/com *************** Write FE CONNECTORS ********* 
CEWRITE,file,ce,,INTE
*get,_nmodalsolproc,active,0,numcpu
fini
/nopr
*get,_numnode,node,0,count
*get,_numelem,elem,0,count
*get, _MAXELEMNUM, elem, 0, NUM, MAX
*get, _MAXNODENUM, node, 0, NUM, MAX,,,INTERNAL
*get, _MAXELEMTYPE, etyp, 0, NUM, MAX
*get, _MAXREALCONST, rcon, 0, NUM, MAX
*get,_NSOLTHREADS,active,0,ntfs
*get,_NSOLPROCESSES,active,0,npfs
/gopr
*get,_wallasol,active,,time,wall
/post1
/nopr
*dim,_direction,CHAR,6,1
_direction(1) = 'X'
_direction(2) = 'Y'
_direction(3) = 'Z'
_direction(4) = 'ROTX'
_direction(5) = 'ROTY'
_direction(6) = 'ROTZ'
*get,_lastLS,active,0,set,LSTP
*get,_beginset,active,0,set,nset,first,_lastLS
*get,_endset,active,0,set,nset,last,_lastLS
_nummodes = 0
*if,_endset,gt,0,then
_nummodes = _endset - _beginset + 1
*endif
*do,i_mode,1,_nummodes
   *do,j_component,1,6
			*get,PFACT_%i_mode%_%j_component%,MODE,%i_mode%,PFACT,,DIREC,_direction(%j_component%)
   *enddo
*enddo
*dim,_tmdirection,CHAR,6,1
_tmdirection(1) = 'X'
_tmdirection(2) = 'Y'
_tmdirection(3) = 'Z'
_tmdirection(4) = 'X'
_tmdirection(5) = 'Y'
_tmdirection(6) = 'Z'
*do,j_component,1,6
    *if,j_component,gt,3,then
        *get,TOTALMASS_%j_component%,ELEM,0,IOR,_tmdirection(%j_component%)
    *else
        *get,TOTALMASS_%j_component%,ELEM,0,MTOT,_tmdirection(%j_component%)
    *endif
*enddo
/gopr
! ****** Begin Command Snippet ******
!   Commands inserted into this file will be executed immediately after the ANSYS /POST1 command.

!   Active UNIT system in Workbench when this object was created:  Metric (m, kg, N, s, V, A)
!   NOTE:  Any data that requires units (such as mass) is assumed to be in the consistent solver unit system.
!                See Solving Units in the help system for more information.


*SMAT, Ksparse, D, IMPORT, FULL, file.full, STIFF
*PRINT, Ksparse, K.sti

*SMAT, Msparse, D, IMPORT, FULL, file.full, MASS
*PRINT, Msparse, M.mass
! ****** End   Command Snippet ******
xmlo,ENCODING,ISO-8859-1
xmlo,parm
/xml,parm,xml
fini
/gopr
*get,_walldone,active,,time,wall
_preptime=(_wallbsol-_wallstrt)*3600
_solvtime=(_wallasol-_wallbsol)*3600
_posttime=(_walldone-_wallasol)*3600
_totaltim=(_walldone-_wallstrt)*3600
*get,_dlbratio,active,0,solu,dlbr
*get,_combtime,active,0,solu,comb
*get,_ssmode,active,0,solu,ssmm
*get,_ndofs,active,0,solu,ndof
/com,--- Total number of nodes = %_numnode%
/com,--- Total number of elements = %_numelem%
/com,--- Element load balance ratio = %_dlbratio%
/com,--- Time to combine distributed files = %_combtime%
/com,--- Sparse memory mode = %_ssmode%
/com,--- Number of DOF = %_ndofs%
/wb,file,end               ! done with WB generated input
