*HEADING
Model: Blade1


*INCLUDE,INPUT=BladeMesh_1_shifted.inp

*MATERIAL,NAME=MAT1
*ELASTIC
210E9,.3
*DENSITY
7.8E3



*SOLID SECTION,ELSET=C3D10_1,MATERIAL=MAT1



*BOUNDARY 
Boundary_1, 1, 3

** *STEP
** *FREQUENCY,SOLVER=MATRIXSTORAGE
** *END STEP


*STEP
*FREQUENCY
40
*NODE FILE
U
*EL FILE
S
*END STEP