*HEADING
Model: Blade1


*INCLUDE,INPUT=BMeshWithPreload_32x32_2_shifted


*MATERIAL,NAME=MAT1
*ELASTIC
210E9,.3
*DENSITY
7.8E3



*SOLID SECTION,ELSET=C3D10,MATERIAL=MAT1



*BOUNDARY 
BoundaryFace_2, 1, 3

*STEP
*FREQUENCY,SOLVER=MATRIXSTORAGE
*END STEP


** *STEP
** *FREQUENCY
** 40
** *NODE FILE
** U
** *EL FILE
** S
** *END STEP