*NODE, NSET=NALL
    1, -8.0000000000e-02, 0.0000000000e+00, 0.0000000000e+00
    2, -8.0000000000e-02, 3.0000000000e-02, 0.0000000000e+00
    3, -1.0000000000e-02, 3.0000000000e-02, 0.0000000000e+00
    4, 0.0000000000e+00, 0.0000000000e+00, 0.0000000000e+00
    5, -8.0000000000e-02, 0.0000000000e+00, -3.0000000000e-02
    6, 0.0000000000e+00, 0.0000000000e+00, -3.0000000000e-02
    7, -1.0000000000e-02, 3.0000000000e-02, -3.0000000000e-02
    8, -8.0000000000e-02, 3.0000000000e-02, -3.0000000000e-02
    9, -2.0000000000e-02, 1.3500000000e-01, -3.0000000000e-02
    10, -2.0000000000e-02, 1.3500000000e-01, -1.5000000000e-02
    11, -1.2500000000e-02, 1.3500000000e-01, -1.5000000000e-02
    12, -1.2500000000e-02, 1.3500000000e-01, 0.0000000000e+00
    13, 1.0000000000e-02, 1.3500000000e-01, 0.0000000000e+00
    14, 1.0000000000e-02, 1.3500000000e-01, -1.5000000000e-02
    15, 2.5000000000e-03, 1.3500000000e-01, -1.5000000000e-02
    16, 2.5000000000e-03, 1.3500000000e-01, -3.0000000000e-02
    17, -1.0000000000e-02, 1.3000000000e-01, 0.0000000000e+00
    18, -1.2500000000e-02, 1.3000000000e-01, 0.0000000000e+00
    19, -1.2500000000e-02, 1.3000000000e-01, -1.5000000000e-02
    20, -2.0000000000e-02, 1.3000000000e-01, -1.5000000000e-02
** ... 103 like lines cut
*ELEMENT, TYPE=C3D4, ELSET=C3D4_1
    338, 87, 75, 121, 115, 
    339, 40, 113, 100, 123, 
    340, 109, 119, 116, 86, 
    341, 109, 90, 116, 108, 
    342, 88, 40, 105, 3, 
    343, 76, 121, 37, 75, 
    344, 105, 3, 41, 88, 
    345, 61, 106, 88, 42, 
    346, 46, 47, 66, 91, 
    347, 120, 88, 105, 106, 
    348, 105, 88, 61, 106, 
    349, 103, 104, 114, 40, 
    350, 81, 31, 101, 69, 
    351, 74, 39, 120, 97, 
    352, 25, 69, 16, 24, 
    353, 41, 88, 61, 105, 
    354, 122, 117, 85, 79, 
    355, 83, 102, 92, 82, 
    356, 76, 95, 37, 121, 
    357, 114, 40, 120, 7, 
** ... 236 like lines cut
*ELSET, ELSET=Face_1
    162, 163, 
*ELSET, ELSET=Face_2
    164, 165, 166, 167, 168, 170, 
*ELSET, ELSET=Boundary_1
    155, 156, 157, 158, 159, 160, 161, 
*ELSET, ELSET=Face_4
    277, 278, 279, 280, 281, 282, 283, 284, 
    285, 286, 287, 288, 289, 290, 291, 292, 
    293, 294, 295, 296, 297, 298, 299, 300, 
    301, 302, 303, 304, 305, 306, 307, 308, 
    309, 
*ELSET, ELSET=Face_5
    172, 173, 174, 175, 176, 177, 178, 179, 
    180, 181, 182, 183, 184, 185, 186, 187, 
    188, 189, 190, 191, 192, 193, 194, 195, 
    196, 197, 198, 199, 200, 201, 202, 203, 
    204, 205, 
*ELSET, ELSET=Face_6
    320, 321, 
*ELSET, ELSET=Face_7
    322, 323, 
*ELSET, ELSET=Face_8
    96, 97, 98, 99, 100, 101, 102, 103, 
    104, 105, 106, 107, 108, 109, 110, 111, 
    112, 113, 114, 115, 116, 117, 118, 119, 
    120, 121, 122, 123, 124, 125, 126, 127, 
    128, 129, 130, 131, 132, 133, 134, 135, 
    136, 137, 138, 139, 140, 141, 142, 143, 
    144, 145, 146, 147, 148, 149, 150, 151, 
    152, 153, 154, 
*ELSET, ELSET=Face_9
    332, 333, 334, 335, 336, 337, 
*ELSET, ELSET=Face_10
    324, 325, 
*ELSET, ELSET=Face_11
    206, 207, 208, 209, 210, 211, 212, 213, 
    214, 215, 216, 217, 218, 219, 220, 221, 
    222, 223, 224, 225, 226, 227, 228, 229, 
    230, 231, 232, 233, 234, 235, 236, 237, 
    238, 239, 240, 241, 242, 243, 244, 245, 
    246, 247, 248, 249, 250, 251, 252, 253, 
    254, 255, 256, 257, 258, 259, 260, 261, 
    262, 263, 264, 265, 266, 267, 268, 269, 
    270, 271, 272, 273, 274, 275, 276, 
*ELSET, ELSET=Face_12
    310, 311, 312, 314, 316, 317, 
*ELSET, ELSET=Face_13
    330, 331, 
*ELSET, ELSET=Face_14
    169, 171, 313, 315, 318, 319, 
*ELSET, ELSET=contact_1
    328, 329, 
*ELSET, ELSET=Face_16
    326, 327, 


*HEADING
Model: test


*MATERIAL,NAME=MAT1
*ELASTIC
210E9,.3
*DENSITY
7.8E3


*SOLID SECTION,ELSET=C3D4_1,MATERIAL=MAT1


*STEP
*FREQUENCY,SOLVER=MATRIXSTORAGE
*END STEP