*NODE, NSET=NALL
    1, -8.0000000000e-02, 0.0000000000e+00, 0.0000000000e+00
    2, -8.0000000000e-02, 3.0000000000e-02, 0.0000000000e+00
    3, -1.0000000000e-02, 3.0000000000e-02, 0.0000000000e+00
    4, 0.0000000000e+00, 0.0000000000e+00, 0.0000000000e+00
    5, -8.0000000000e-02, 0.0000000000e+00, -3.0000000000e-02
    6, 0.0000000000e+00, 0.0000000000e+00, -3.0000000000e-02
    7, -1.0000000000e-02, 3.0000000000e-02, -3.0000000000e-02
    8, -8.0000000000e-02, 3.0000000000e-02, -3.0000000000e-02
    9, -2.0000000000e-02, 1.3500000000e-01, -3.0000000000e-02
    10, -2.0000000000e-02, 1.3500000000e-01, -1.5000000000e-02
    11, -1.2500000000e-02, 1.3500000000e-01, -1.5000000000e-02
    12, -1.2500000000e-02, 1.3500000000e-01, 0.0000000000e+00
    13, 1.0000000000e-02, 1.3500000000e-01, 0.0000000000e+00
    14, 1.0000000000e-02, 1.3500000000e-01, -1.5000000000e-02
    15, 2.5000000000e-03, 1.3500000000e-01, -1.5000000000e-02
    16, 2.5000000000e-03, 1.3500000000e-01, -3.0000000000e-02
    17, -1.0000000000e-02, 1.3000000000e-01, 0.0000000000e+00
    18, -1.2500000000e-02, 1.3000000000e-01, 0.0000000000e+00
    19, -1.2500000000e-02, 1.3000000000e-01, -1.5000000000e-02
    20, -2.0000000000e-02, 1.3000000000e-01, -1.5000000000e-02
** ... 2313 like lines cut
*ELEMENT, TYPE=C3D10, ELSET=C3D10
    719, 322, 325, 157, 323, 1217, 1219, 1216, 1218, 1221, 1220, 
    720, 169, 182, 159, 230, 672, 674, 630, 1222, 1224, 1223, 
    721, 38, 327, 326, 328, 1226, 1228, 1225, 1227, 1230, 1229, 
    722, 159, 237, 177, 178, 1231, 1232, 676, 671, 1233, 639, 
    723, 326, 316, 324, 251, 1235, 1237, 1234, 1236, 1239, 1238, 
    724, 190, 49, 3, 205, 1240, 405, 761, 1241, 1243, 1242, 
    725, 289, 293, 333, 335, 1245, 1247, 1244, 1246, 1249, 1248, 
    726, 309, 349, 320, 316, 1251, 1253, 1250, 1252, 1255, 1254, 
    727, 155, 319, 36, 156, 1256, 1257, 563, 567, 1258, 565, 
    728, 200, 305, 100, 222, 1259, 1260, 796, 878, 1261, 856, 
    729, 297, 302, 308, 252, 1263, 1265, 1262, 1264, 1267, 1266, 
    730, 346, 259, 344, 308, 1269, 1271, 1268, 1270, 1273, 1272, 
    731, 36, 37, 322, 324, 390, 1276, 1274, 1275, 1278, 1277, 
    732, 322, 323, 317, 349, 1218, 1281, 1279, 1280, 1283, 1282, 
    733, 319, 321, 316, 309, 1285, 1287, 1284, 1286, 1288, 1252, 
    734, 295, 303, 300, 290, 1290, 1292, 1289, 1291, 1294, 1293, 
    735, 298, 237, 177, 233, 1296, 1232, 1295, 1297, 933, 1298, 
    736, 265, 131, 332, 334, 1120, 1301, 1299, 1300, 1303, 1302, 
    737, 233, 182, 235, 230, 1304, 1305, 912, 948, 1224, 947, 
    738, 348, 260, 320, 350, 1307, 1309, 1306, 1308, 1311, 1310, 
** ... 1274 like lines cut
*ELSET, ELSET=Face_1
    284, 285, 286, 287, 288, 289, 
*ELSET, ELSET=Face_2
    290, 291, 292, 293, 294, 295, 296, 297, 
    298, 299, 300, 301, 302, 303, 304, 305, 
*ELSET, ELSET=Boundary_1
    264, 265, 266, 267, 268, 269, 270, 271, 
    272, 273, 274, 275, 276, 277, 278, 279, 
    280, 281, 282, 283, 
*ELSET, ELSET=Face_4
    486, 487, 488, 489, 490, 491, 492, 493, 
    494, 495, 496, 497, 498, 499, 500, 501, 
    502, 503, 504, 505, 506, 507, 508, 509, 
    510, 511, 512, 513, 514, 515, 516, 517, 
    518, 519, 520, 521, 522, 523, 524, 525, 
    526, 527, 528, 529, 530, 531, 532, 533, 
    534, 535, 536, 537, 538, 539, 540, 541, 
    542, 543, 544, 545, 546, 
*ELSET, ELSET=Face_5
    306, 307, 308, 309, 310, 311, 312, 313, 
    314, 315, 316, 317, 318, 319, 320, 321, 
    322, 323, 324, 325, 326, 327, 328, 329, 
    330, 331, 332, 333, 334, 335, 336, 337, 
    338, 339, 340, 341, 342, 343, 344, 345, 
    346, 347, 348, 349, 350, 351, 352, 353, 
    354, 355, 356, 357, 358, 359, 360, 361, 
    362, 363, 364, 
*ELSET, ELSET=Face_6
    595, 596, 597, 598, 599, 600, 
*ELSET, ELSET=Face_7
    601, 602, 603, 604, 
*ELSET, ELSET=Face_8
    163, 164, 165, 166, 167, 168, 169, 170, 
    171, 172, 173, 174, 175, 176, 177, 178, 
    179, 180, 181, 182, 183, 184, 185, 186, 
    187, 188, 189, 190, 191, 192, 193, 194, 
    195, 196, 197, 198, 199, 200, 201, 202, 
    203, 204, 205, 206, 207, 208, 209, 210, 
    211, 212, 213, 214, 215, 216, 217, 218, 
    219, 220, 221, 222, 223, 224, 225, 226, 
    227, 228, 229, 230, 231, 232, 233, 234, 
    235, 236, 237, 238, 239, 240, 241, 242, 
    243, 244, 245, 246, 247, 248, 249, 250, 
    251, 252, 253, 254, 255, 256, 257, 258, 
    259, 260, 261, 262, 263, 
*ELSET, ELSET=Face_9
    647, 648, 649, 650, 651, 652, 653, 654, 
    655, 656, 657, 658, 659, 660, 661, 662, 
    663, 664, 665, 666, 667, 668, 669, 670, 
    671, 672, 673, 674, 675, 676, 677, 678, 
    679, 680, 681, 
*ELSET, ELSET=Face_10
    605, 606, 607, 608, 609, 610, 611, 612, 
    613, 614, 615, 616, 617, 618, 619, 
*ELSET, ELSET=Face_11
    365, 366, 367, 368, 369, 370, 371, 372, 
    373, 374, 375, 376, 377, 378, 379, 380, 
    381, 382, 383, 384, 385, 386, 387, 388, 
    389, 390, 391, 392, 393, 394, 395, 396, 
    397, 398, 399, 400, 401, 402, 403, 404, 
    405, 406, 407, 408, 409, 410, 411, 412, 
    413, 414, 415, 416, 417, 418, 419, 420, 
    421, 422, 423, 424, 425, 426, 427, 428, 
    429, 430, 431, 432, 433, 434, 435, 436, 
    437, 438, 439, 440, 441, 442, 443, 444, 
    445, 446, 447, 448, 449, 450, 451, 452, 
    453, 454, 455, 456, 457, 458, 459, 460, 
    461, 462, 463, 464, 465, 466, 467, 468, 
    469, 470, 471, 472, 473, 474, 475, 476, 
    477, 478, 479, 480, 481, 482, 483, 484, 
    485, 
*ELSET, ELSET=Face_12
    547, 548, 549, 550, 551, 552, 553, 554, 
    555, 556, 557, 558, 559, 560, 561, 562, 
    563, 564, 565, 566, 567, 568, 569, 570, 
    571, 572, 573, 574, 575, 576, 577, 578, 
    579, 580, 581, 582, 583, 584, 585, 586, 
    587, 588, 589, 590, 591, 592, 593, 594, 
*ELSET, ELSET=Face_13
    630, 631, 632, 633, 634, 635, 636, 637, 
    638, 639, 640, 641, 642, 643, 644, 645, 
    646, 
*ELSET, ELSET=Face_14
    682, 683, 684, 685, 686, 687, 688, 689, 
    690, 691, 692, 693, 694, 695, 696, 697, 
    698, 699, 700, 701, 702, 703, 704, 705, 
    706, 707, 708, 709, 710, 711, 712, 713, 
    714, 715, 716, 717, 718, 
*ELSET, ELSET=contact_1
    626, 627, 628, 629, 
*ELSET, ELSET=Face_16
    620, 621, 622, 623, 624, 625, 


*HEADING
Model: test

*MATERIAL,NAME=MAT1
*ELASTIC
210E9,.3
*DENSITY
7.8E3

*SOLID SECTION,ELSET=C3D10,MATERIAL=MAT1

*STEP
*FREQUENCY,SOLVER=MATRIXSTORAGE
*END STEP