*HEADING
Model: Blade_left


*INCLUDE,INPUT=blade-left-mesh-clean.inp

*MATERIAL,NAME=MAT1
*ELASTIC
210E9,.3
*DENSITY
7.8E3



*SOLID SECTION,ELSET=Eall_BladeL,MATERIAL=MAT1



*BOUNDARY 
Base_Nodes_BladeL, 1, 3

** *STEP
** *FREQUENCY,SOLVER=MATRIXSTORAGE
** *END STEP


*STEP
*FREQUENCY
40
*NODE FILE
U
*EL FILE
S
*END STEP