*HEADING
Model: Blade_right


*INCLUDE,INPUT=blade-right-mesh-clean.inp

*MATERIAL,NAME=MAT1
*ELASTIC
210E9,.3
*DENSITY
7.8E3



*SOLID SECTION,ELSET=Eall_BladeR,MATERIAL=MAT1



*BOUNDARY 
Base_Nodes_BladeR, 1, 3

** *STEP
** *FREQUENCY,SOLVER=MATRIXSTORAGE
** *END STEP


*STEP
*FREQUENCY
40
*NODE FILE
U
*EL FILE
S
*END STEP