*HEADING
Model: Box2


*INCLUDE,INPUT=Mesh_2_shifted.inp

*MATERIAL,NAME=MAT1
*ELASTIC
210E9,.3
*DENSITY
7.8E3



*SOLID SECTION,ELSET=C3D8,MATERIAL=MAT1



*BOUNDARY 
Boundary_2, 1, 3

** *STEP
** *FREQUENCY,SOLVER=MATRIXSTORAGE
** *END STEP


*STEP
*FREQUENCY
20
*NODE FILE
U
*EL FILE
S
*END STEP