*HEADING
Model: Box


*INCLUDE,INPUT=Mesh_1_shifted.inp
*INCLUDE,INPUT=Mesh_2_shifted.inp

*MATERIAL,NAME=MAT1
*ELASTIC
210E9,.3
*DENSITY
7.8E3



*SOLID SECTION,ELSET=C3D8_1,MATERIAL=MAT1
*SOLID SECTION,ELSET=C3D8_2,MATERIAL=MAT1


*BOUNDARY 
Boundary_1, 1, 3
Boundary_2, 1, 3

*EQUATION
2
1000018,1,1.0,2000018,1,-1.0
2
1000018,2,1.0,2000018,2,-1.0
2
1000018,3,1.0,2000018,3,-1.0
 
** *STEP
** *FREQUENCY,SOLVER=MATRIXSTORAGE
** *END STEP


*STEP
*FREQUENCY
40
*NODE FILE
U
*EL FILE
S
*END STEP