*HEADING
Model: box_1


*INCLUDE,INPUT=Mesh_1_shifted.inp

*MATERIAL,NAME=MAT1
*ELASTIC
210E9,.3
*DENSITY
7.8E3



*SOLID SECTION,ELSET=C3D8,MATERIAL=MAT1



*BOUNDARY 
Boundary_1, 1, 3

** *STEP
** *FREQUENCY,SOLVER=MATRIXSTORAGE
** *END STEP


*STEP
*FREQUENCY
10
*NODE FILE
U
*EL FILE
S
*END STEP