*NODE, NSET=NALL
    1, 0.0000000000e+00, 0.0000000000e+00, 1.0000000000e+00
    2, 0.0000000000e+00, 0.0000000000e+00, 0.0000000000e+00
    3, 0.0000000000e+00, 1.0000000000e+00, 1.0000000000e+00
    4, 0.0000000000e+00, 1.0000000000e+00, 0.0000000000e+00
    5, 1.0000000000e+00, 0.0000000000e+00, 1.0000000000e+00
    6, 1.0000000000e+00, 0.0000000000e+00, 0.0000000000e+00
    7, 1.0000000000e+00, 1.0000000000e+00, 1.0000000000e+00
    8, 1.0000000000e+00, 1.0000000000e+00, 0.0000000000e+00
    9, 0.0000000000e+00, 0.0000000000e+00, 5.0000000000e-01
    10, 0.0000000000e+00, 5.0000000000e-01, 1.0000000000e+00
    11, 0.0000000000e+00, 1.0000000000e+00, 5.0000000000e-01
    12, 0.0000000000e+00, 5.0000000000e-01, 0.0000000000e+00
    13, 1.0000000000e+00, 0.0000000000e+00, 5.0000000000e-01
    14, 1.0000000000e+00, 5.0000000000e-01, 1.0000000000e+00
    15, 1.0000000000e+00, 1.0000000000e+00, 5.0000000000e-01
    16, 1.0000000000e+00, 5.0000000000e-01, 0.0000000000e+00
    17, 5.0000000000e-01, 0.0000000000e+00, 0.0000000000e+00
    18, 5.0000000000e-01, 0.0000000000e+00, 1.0000000000e+00
    19, 5.0000000000e-01, 1.0000000000e+00, 0.0000000000e+00
    20, 5.0000000000e-01, 1.0000000000e+00, 1.0000000000e+00

*ELEMENT, TYPE=C3D20, ELSET=C3D20
    19, 1, 2, 4, 3, 5, 6, 8, 7, 9, 12, 
    11, 10, 13, 16, 15, 14, 18, 17, 19, 20, 

*MATERIAL,NAME=MAT1
*ELASTIC
210E9,.3
*DENSITY
7.8E3



*SOLID SECTION,ELSET=C3D20,MATERIAL=MAT1




*STEP
*FREQUENCY,SOLVER=MATRIXSTORAGE
*END STEP


** *STEP
** *FREQUENCY
** 4
** *NODE FILE
** U
** *EL FILE
** S
** *END STEP